sisyphean-power-and-light/network/results/scenarios/ev_adoption_2030/ev_loads.dss
! Scenario EV Charging Loads

New Load.ev_XFMR-000001 bus1=bus_XFMR-000001_sec phases=1 kv=0.24 kw=780.10 pf=0.98
New Load.ev_XFMR-000006 bus1=bus_XFMR-000006_sec phases=1 kv=0.24 kw=40.60 pf=0.98
New Load.ev_XFMR-000007 bus1=bus_XFMR-000007_sec phases=1 kv=0.24 kw=1687.30 pf=0.98
New Load.ev_XFMR-000014 bus1=bus_XFMR-000014_sec phases=1 kv=0.24 kw=177.10 pf=0.98
New Load.ev_XFMR-000016 bus1=bus_XFMR-000016_sec phases=1 kv=0.24 kw=310.50 pf=0.98
New Load.ev_XFMR-000021 bus1=bus_XFMR-000021_sec phases=1 kv=0.24 kw=39.20 pf=0.98
New Load.ev_XFMR-000029 bus1=bus_XFMR-000029_sec phases=1 kv=0.24 kw=483.00 pf=0.98
New Load.ev_XFMR-000034 bus1=bus_XFMR-000034_sec phases=1 kv=0.24 kw=276.50 pf=0.98
New Load.ev_XFMR-000036 bus1=bus_XFMR-000036_sec phases=1 kv=0.24 kw=356.50 pf=0.98
New Load.ev_XFMR-000037 bus1=bus_XFMR-000037_sec phases=1 kv=0.24 kw=1029.80 pf=0.98
New Load.ev_XFMR-000039 bus1=bus_XFMR-000039_sec phases=1 kv=0.24 kw=518.40 pf=0.98
New Load.ev_XFMR-000041 bus1=bus_XFMR-000041_sec phases=1 kv=0.24 kw=37.80 pf=0.98
New Load.ev_XFMR-000048 bus1=bus_XFMR-000048_sec phases=1 kv=0.24 kw=770.50 pf=0.98
New Load.ev_XFMR-000049 bus1=bus_XFMR-000049_sec phases=1 kv=0.24 kw=475.20 pf=0.98
New Load.ev_XFMR-000050 bus1=bus_XFMR-000050_sec phases=1 kv=0.24 kw=402.50 pf=0.98
New Load.ev_XFMR-000051 bus1=bus_XFMR-000051_sec phases=1 kv=0.24 kw=43.40 pf=0.98
New Load.ev_XFMR-000052 bus1=bus_XFMR-000052_sec phases=1 kv=0.24 kw=39.20 pf=0.98
New Load.ev_XFMR-000055 bus1=bus_XFMR-000055_sec phases=1 kv=0.24 kw=645.10 pf=0.98
New Load.ev_XFMR-000061 bus1=bus_XFMR-000061_sec phases=1 kv=0.24 kw=35.00 pf=0.98
New Load.ev_XFMR-000064 bus1=bus_XFMR-000064_sec phases=1 kv=0.24 kw=403.20 pf=0.98
New Load.ev_XFMR-000065 bus1=bus_XFMR-000065_sec phases=1 kv=0.24 kw=391.00 pf=0.98
New Load.ev_XFMR-000066 bus1=bus_XFMR-000066_sec phases=1 kv=0.24 kw=586.50 pf=0.98
New Load.ev_XFMR-000068 bus1=bus_XFMR-000068_sec phases=1 kv=0.24 kw=757.10 pf=0.98
New Load.ev_XFMR-000076 bus1=bus_XFMR-000076_sec phases=1 kv=0.24 kw=379.50 pf=0.98
New Load.ev_XFMR-000077 bus1=bus_XFMR-000077_sec phases=1 kv=0.24 kw=1087.40 pf=0.98
New Load.ev_XFMR-000079 bus1=bus_XFMR-000079_sec phases=1 kv=0.24 kw=537.60 pf=0.98
New Load.ev_XFMR-000081 bus1=bus_XFMR-000081_sec phases=1 kv=0.24 kw=867.80 pf=0.98
New Load.ev_XFMR-000082 bus1=bus_XFMR-000082_sec phases=1 kv=0.24 kw=264.50 pf=0.98
New Load.ev_XFMR-000084 bus1=bus_XFMR-000084_sec phases=1 kv=0.24 kw=4200.00 pf=0.98
New Load.ev_XFMR-000086 bus1=bus_XFMR-000086_sec phases=1 kv=0.24 kw=284.90 pf=0.98
New Load.ev_XFMR-000090 bus1=bus_XFMR-000090_sec phases=1 kv=0.24 kw=844.80 pf=0.98
New Load.ev_XFMR-000092 bus1=bus_XFMR-000092_sec phases=1 kv=0.24 kw=43.40 pf=0.98
New Load.ev_XFMR-000094 bus1=bus_XFMR-000094_sec phases=1 kv=0.24 kw=460.00 pf=0.98
New Load.ev_XFMR-000096 bus1=bus_XFMR-000096_sec phases=1 kv=0.24 kw=241.50 pf=0.98
New Load.ev_XFMR-000097 bus1=bus_XFMR-000097_sec phases=1 kv=0.24 kw=39.20 pf=0.98
New Load.ev_XFMR-000102 bus1=bus_XFMR-000102_sec phases=1 kv=0.24 kw=299.00 pf=0.98
New Load.ev_XFMR-000104 bus1=bus_XFMR-000104_sec phases=1 kv=0.24 kw=1500.00 pf=0.98
New Load.ev_XFMR-000108 bus1=bus_XFMR-000108_sec phases=1 kv=0.24 kw=54.60 pf=0.98
New Load.ev_XFMR-000109 bus1=bus_XFMR-000109_sec phases=1 kv=0.24 kw=576.00 pf=0.98
New Load.ev_XFMR-000112 bus1=bus_XFMR-000112_sec phases=1 kv=0.24 kw=287.50 pf=0.98
New Load.ev_XFMR-000117 bus1=bus_XFMR-000117_sec phases=1 kv=0.24 kw=1420.80 pf=0.98
New Load.ev_XFMR-000120 bus1=bus_XFMR-000120_sec phases=1 kv=0.24 kw=425.50 pf=0.98
New Load.ev_XFMR-000122 bus1=bus_XFMR-000122_sec phases=1 kv=0.24 kw=678.50 pf=0.98
New Load.ev_XFMR-000125 bus1=bus_XFMR-000125_sec phases=1 kv=0.24 kw=471.50 pf=0.98
New Load.ev_XFMR-000126 bus1=bus_XFMR-000126_sec phases=1 kv=0.24 kw=691.20 pf=0.98
New Load.ev_XFMR-000130 bus1=bus_XFMR-000130_sec phases=1 kv=0.24 kw=537.60 pf=0.98
New Load.ev_XFMR-000133 bus1=bus_XFMR-000133_sec phases=1 kv=0.24 kw=695.70 pf=0.98
New Load.ev_XFMR-000134 bus1=bus_XFMR-000134_sec phases=1 kv=0.24 kw=299.00 pf=0.98
New Load.ev_XFMR-000140 bus1=bus_XFMR-000140_sec phases=1 kv=0.24 kw=44.80 pf=0.98
New Load.ev_XFMR-000141 bus1=bus_XFMR-000141_sec phases=1 kv=0.24 kw=799.40 pf=0.98
New Load.ev_XFMR-000161 bus1=bus_XFMR-000161_sec phases=1 kv=0.24 kw=138.60 pf=0.98
New Load.ev_XFMR-000163 bus1=bus_XFMR-000163_sec phases=1 kv=0.24 kw=402.50 pf=0.98
New Load.ev_XFMR-000164 bus1=bus_XFMR-000164_sec phases=1 kv=0.24 kw=207.90 pf=0.98
New Load.ev_XFMR-000165 bus1=bus_XFMR-000165_sec phases=1 kv=0.24 kw=35.00 pf=0.98
New Load.ev_XFMR-000166 bus1=bus_XFMR-000166_sec phases=1 kv=0.24 kw=46.20 pf=0.98
New Load.ev_XFMR-000169 bus1=bus_XFMR-000169_sec phases=1 kv=0.24 kw=42.00 pf=0.98
New Load.ev_XFMR-000174 bus1=bus_XFMR-000174_sec phases=1 kv=0.24 kw=384.00 pf=0.98
New Load.ev_XFMR-000175 bus1=bus_XFMR-000175_sec phases=1 kv=0.24 kw=588.00 pf=0.98
New Load.ev_XFMR-000176 bus1=bus_XFMR-000176_sec phases=1 kv=0.24 kw=661.10 pf=0.98
New Load.ev_XFMR-000178 bus1=bus_XFMR-000178_sec phases=1 kv=0.24 kw=990.20 pf=0.98
New Load.ev_XFMR-000179 bus1=bus_XFMR-000179_sec phases=1 kv=0.24 kw=7683.60 pf=0.98
New Load.ev_XFMR-000181 bus1=bus_XFMR-000181_sec phases=1 kv=0.24 kw=77.00 pf=0.98
New Load.ev_XFMR-000185 bus1=bus_XFMR-000185_sec phases=1 kv=0.24 kw=238.70 pf=0.98
New Load.ev_XFMR-000186 bus1=bus_XFMR-000186_sec phases=1 kv=0.24 kw=633.60 pf=0.98
New Load.ev_XFMR-000195 bus1=bus_XFMR-000195_sec phases=1 kv=0.24 kw=403.20 pf=0.98
New Load.ev_XFMR-000198 bus1=bus_XFMR-000198_sec phases=1 kv=0.24 kw=223.30 pf=0.98
New Load.ev_XFMR-000203 bus1=bus_XFMR-000203_sec phases=1 kv=0.24 kw=277.20 pf=0.98
New Load.ev_XFMR-000207 bus1=bus_XFMR-000207_sec phases=1 kv=0.24 kw=37.80 pf=0.98
New Load.ev_XFMR-000213 bus1=bus_XFMR-000213_sec phases=1 kv=0.24 kw=2010.80 pf=0.98
New Load.ev_XFMR-000216 bus1=bus_XFMR-000216_sec phases=1 kv=0.24 kw=169.40 pf=0.98
New Load.ev_XFMR-000217 bus1=bus_XFMR-000217_sec phases=1 kv=0.24 kw=722.40 pf=0.98
New Load.ev_XFMR-000219 bus1=bus_XFMR-000219_sec phases=1 kv=0.24 kw=485.10 pf=0.98
New Load.ev_XFMR-000221 bus1=bus_XFMR-000221_sec phases=1 kv=0.24 kw=836.60 pf=0.98
New Load.ev_XFMR-000223 bus1=bus_XFMR-000223_sec phases=1 kv=0.24 kw=506.00 pf=0.98
New Load.ev_XFMR-000228 bus1=bus_XFMR-000228_sec phases=1 kv=0.24 kw=200.20 pf=0.98
New Load.ev_XFMR-000229 bus1=bus_XFMR-000229_sec phases=1 kv=0.24 kw=276.00 pf=0.98
New Load.ev_XFMR-000230 bus1=bus_XFMR-000230_sec phases=1 kv=0.24 kw=10587.00 pf=0.98
New Load.ev_XFMR-000233 bus1=bus_XFMR-000233_sec phases=1 kv=0.24 kw=54.60 pf=0.98
New Load.ev_XFMR-000236 bus1=bus_XFMR-000236_sec phases=1 kv=0.24 kw=1094.40 pf=0.98
New Load.ev_XFMR-000239 bus1=bus_XFMR-000239_sec phases=1 kv=0.24 kw=834.20 pf=0.98
New Load.ev_XFMR-000240 bus1=bus_XFMR-000240_sec phases=1 kv=0.24 kw=737.90 pf=0.98
New Load.ev_XFMR-000241 bus1=bus_XFMR-000241_sec phases=1 kv=0.24 kw=231.00 pf=0.98
New Load.ev_XFMR-000243 bus1=bus_XFMR-000243_sec phases=1 kv=0.24 kw=576.00 pf=0.98
New Load.ev_XFMR-000245 bus1=bus_XFMR-000245_sec phases=1 kv=0.24 kw=425.50 pf=0.98
New Load.ev_XFMR-000248 bus1=bus_XFMR-000248_sec phases=1 kv=0.24 kw=47.60 pf=0.98
New Load.ev_XFMR-000249 bus1=bus_XFMR-000249_sec phases=1 kv=0.24 kw=425.50 pf=0.98
New Load.ev_XFMR-000251 bus1=bus_XFMR-000251_sec phases=1 kv=0.24 kw=184.80 pf=0.98
New Load.ev_XFMR-000252 bus1=bus_XFMR-000252_sec phases=1 kv=0.24 kw=595.20 pf=0.98
New Load.ev_XFMR-000257 bus1=bus_XFMR-000257_sec phases=1 kv=0.24 kw=537.60 pf=0.98
New Load.ev_XFMR-000260 bus1=bus_XFMR-000260_sec phases=1 kv=0.24 kw=564.60 pf=0.98
New Load.ev_XFMR-000266 bus1=bus_XFMR-000266_sec phases=1 kv=0.24 kw=326.90 pf=0.98
New Load.ev_XFMR-000267 bus1=bus_XFMR-000267_sec phases=1 kv=0.24 kw=1388.20 pf=0.98
New Load.ev_XFMR-000268 bus1=bus_XFMR-000268_sec phases=1 kv=0.24 kw=4050.00 pf=0.98
New Load.ev_XFMR-000272 bus1=bus_XFMR-000272_sec phases=1 kv=0.24 kw=391.00 pf=0.98
New Load.ev_XFMR-000273 bus1=bus_XFMR-000273_sec phases=1 kv=0.24 kw=264.50 pf=0.98
New Load.ev_XFMR-000274 bus1=bus_XFMR-000274_sec phases=1 kv=0.24 kw=1017.00 pf=0.98
New Load.ev_XFMR-000275 bus1=bus_XFMR-000275_sec phases=1 kv=0.24 kw=779.70 pf=0.98
New Load.ev_XFMR-000289 bus1=bus_XFMR-000289_sec phases=1 kv=0.24 kw=292.60 pf=0.98
New Load.ev_XFMR-000292 bus1=bus_XFMR-000292_sec phases=1 kv=0.24 kw=441.60 pf=0.98
New Load.ev_XFMR-000293 bus1=bus_XFMR-000293_sec phases=1 kv=0.24 kw=53.20 pf=0.98
New Load.ev_XFMR-000294 bus1=bus_XFMR-000294_sec phases=1 kv=0.24 kw=614.40 pf=0.98
New Load.ev_XFMR-000297 bus1=bus_XFMR-000297_sec phases=1 kv=0.24 kw=748.80 pf=0.98
New Load.ev_XFMR-000305 bus1=bus_XFMR-000305_sec phases=1 kv=0.24 kw=215.60 pf=0.98
New Load.ev_XFMR-000306 bus1=bus_XFMR-000306_sec phases=1 kv=0.24 kw=60.20 pf=0.98
New Load.ev_XFMR-000310 bus1=bus_XFMR-000310_sec phases=1 kv=0.24 kw=46.20 pf=0.98
New Load.ev_XFMR-000315 bus1=bus_XFMR-000315_sec phases=1 kv=0.24 kw=494.50 pf=0.98
New Load.ev_XFMR-000317 bus1=bus_XFMR-000317_sec phases=1 kv=0.24 kw=595.20 pf=0.98
New Load.ev_XFMR-000323 bus1=bus_XFMR-000323_sec phases=1 kv=0.24 kw=368.00 pf=0.98
New Load.ev_XFMR-000327 bus1=bus_XFMR-000327_sec phases=1 kv=0.24 kw=983.70 pf=0.98
New Load.ev_XFMR-000328 bus1=bus_XFMR-000328_sec phases=1 kv=0.24 kw=928.60 pf=0.98
New Load.ev_XFMR-000329 bus1=bus_XFMR-000329_sec phases=1 kv=0.24 kw=402.70 pf=0.98
New Load.ev_XFMR-000332 bus1=bus_XFMR-000332_sec phases=1 kv=0.24 kw=710.40 pf=0.98
New Load.ev_XFMR-000338 bus1=bus_XFMR-000338_sec phases=1 kv=0.24 kw=364.80 pf=0.98
New Load.ev_XFMR-000339 bus1=bus_XFMR-000339_sec phases=1 kv=0.24 kw=53.20 pf=0.98
New Load.ev_XFMR-000340 bus1=bus_XFMR-000340_sec phases=1 kv=0.24 kw=58.80 pf=0.98
New Load.ev_XFMR-000342 bus1=bus_XFMR-000342_sec phases=1 kv=0.24 kw=43.40 pf=0.98
New Load.ev_XFMR-000345 bus1=bus_XFMR-000345_sec phases=1 kv=0.24 kw=43.40 pf=0.98
New Load.ev_XFMR-000347 bus1=bus_XFMR-000347_sec phases=1 kv=0.24 kw=6150.00 pf=0.98
New Load.ev_XFMR-000349 bus1=bus_XFMR-000349_sec phases=1 kv=0.24 kw=480.00 pf=0.98
New Load.ev_XFMR-000350 bus1=bus_XFMR-000350_sec phases=1 kv=0.24 kw=277.20 pf=0.98
New Load.ev_XFMR-000353 bus1=bus_XFMR-000353_sec phases=1 kv=0.24 kw=3450.00 pf=0.98
New Load.ev_XFMR-000354 bus1=bus_XFMR-000354_sec phases=1 kv=0.24 kw=672.00 pf=0.98
New Load.ev_XFMR-000355 bus1=bus_XFMR-000355_sec phases=1 kv=0.24 kw=379.50 pf=0.98
New Load.ev_XFMR-000360 bus1=bus_XFMR-000360_sec phases=1 kv=0.24 kw=368.00 pf=0.98
New Load.ev_XFMR-000362 bus1=bus_XFMR-000362_sec phases=1 kv=0.24 kw=499.20 pf=0.98
New Load.ev_XFMR-000365 bus1=bus_XFMR-000365_sec phases=1 kv=0.24 kw=43.40 pf=0.98
New Load.ev_XFMR-000367 bus1=bus_XFMR-000367_sec phases=1 kv=0.24 kw=246.40 pf=0.98
New Load.ev_XFMR-000369 bus1=bus_XFMR-000369_sec phases=1 kv=0.24 kw=422.40 pf=0.98
New Load.ev_XFMR-000372 bus1=bus_XFMR-000372_sec phases=1 kv=0.24 kw=614.40 pf=0.98
New Load.ev_XFMR-000373 bus1=bus_XFMR-000373_sec phases=1 kv=0.24 kw=595.20 pf=0.98
New Load.ev_XFMR-000374 bus1=bus_XFMR-000374_sec phases=1 kv=0.24 kw=614.40 pf=0.98
New Load.ev_XFMR-000376 bus1=bus_XFMR-000376_sec phases=1 kv=0.24 kw=49.00 pf=0.98
New Load.ev_XFMR-000378 bus1=bus_XFMR-000378_sec phases=1 kv=0.24 kw=89.60 pf=0.98
New Load.ev_XFMR-000379 bus1=bus_XFMR-000379_sec phases=1 kv=0.24 kw=40.60 pf=0.98
New Load.ev_XFMR-000382 bus1=bus_XFMR-000382_sec phases=1 kv=0.24 kw=39.20 pf=0.98
New Load.ev_XFMR-000386 bus1=bus_XFMR-000386_sec phases=1 kv=0.24 kw=42.00 pf=0.98
New Load.ev_XFMR-000391 bus1=bus_XFMR-000391_sec phases=1 kv=0.24 kw=77.00 pf=0.98
New Load.ev_XFMR-000393 bus1=bus_XFMR-000393_sec phases=1 kv=0.24 kw=36.40 pf=0.98
New Load.ev_XFMR-000396 bus1=bus_XFMR-000396_sec phases=1 kv=0.24 kw=425.50 pf=0.98
New Load.ev_XFMR-000398 bus1=bus_XFMR-000398_sec phases=1 kv=0.24 kw=14000.00 pf=0.98
New Load.ev_XFMR-000400 bus1=bus_XFMR-000400_sec phases=1 kv=0.24 kw=556.80 pf=0.98
New Load.ev_XFMR-000401 bus1=bus_XFMR-000401_sec phases=1 kv=0.24 kw=4515.70 pf=0.98
New Load.ev_XFMR-000402 bus1=bus_XFMR-000402_sec phases=1 kv=0.24 kw=633.60 pf=0.98
New Load.ev_XFMR-000409 bus1=bus_XFMR-000409_sec phases=1 kv=0.24 kw=161.70 pf=0.98
New Load.ev_XFMR-000411 bus1=bus_XFMR-000411_sec phases=1 kv=0.24 kw=49.00 pf=0.98
New Load.ev_XFMR-000412 bus1=bus_XFMR-000412_sec phases=1 kv=0.24 kw=44.80 pf=0.98
New Load.ev_XFMR-000415 bus1=bus_XFMR-000415_sec phases=1 kv=0.24 kw=43.40 pf=0.98
New Load.ev_XFMR-000417 bus1=bus_XFMR-000417_sec phases=1 kv=0.24 kw=29.40 pf=0.98
New Load.ev_XFMR-000419 bus1=bus_XFMR-000419_sec phases=1 kv=0.24 kw=1400.00 pf=0.98
New Load.ev_XFMR-000423 bus1=bus_XFMR-000423_sec phases=1 kv=0.24 kw=276.00 pf=0.98
New Load.ev_XFMR-000424 bus1=bus_XFMR-000424_sec phases=1 kv=0.24 kw=1189.30 pf=0.98
New Load.ev_XFMR-000428 bus1=bus_XFMR-000428_sec phases=1 kv=0.24 kw=4950.00 pf=0.98
New Load.ev_XFMR-000432 bus1=bus_XFMR-000432_sec phases=1 kv=0.24 kw=851.90 pf=0.98
New Load.ev_XFMR-000436 bus1=bus_XFMR-000436_sec phases=1 kv=0.24 kw=652.80 pf=0.98
New Load.ev_XFMR-000438 bus1=bus_XFMR-000438_sec phases=1 kv=0.24 kw=9142.00 pf=0.98
New Load.ev_XFMR-000446 bus1=bus_XFMR-000446_sec phases=1 kv=0.24 kw=339.60 pf=0.98
New Load.ev_XFMR-000448 bus1=bus_XFMR-000448_sec phases=1 kv=0.24 kw=441.60 pf=0.98
New Load.ev_XFMR-000450 bus1=bus_XFMR-000450_sec phases=1 kv=0.24 kw=241.50 pf=0.98
New Load.ev_XFMR-000452 bus1=bus_XFMR-000452_sec phases=1 kv=0.24 kw=254.10 pf=0.98
New Load.ev_XFMR-000455 bus1=bus_XFMR-000455_sec phases=1 kv=0.24 kw=49.00 pf=0.98
New Load.ev_XFMR-000457 bus1=bus_XFMR-000457_sec phases=1 kv=0.24 kw=63.00 pf=0.98
New Load.ev_XFMR-000463 bus1=bus_XFMR-000463_sec phases=1 kv=0.24 kw=1190.40 pf=0.98
New Load.ev_XFMR-000466 bus1=bus_XFMR-000466_sec phases=1 kv=0.24 kw=922.10 pf=0.98
New Load.ev_XFMR-000467 bus1=bus_XFMR-000467_sec phases=1 kv=0.24 kw=1881.00 pf=0.98
New Load.ev_XFMR-000471 bus1=bus_XFMR-000471_sec phases=1 kv=0.24 kw=215.60 pf=0.98
New Load.ev_XFMR-000473 bus1=bus_XFMR-000473_sec phases=1 kv=0.24 kw=254.10 pf=0.98
New Load.ev_XFMR-000475 bus1=bus_XFMR-000475_sec phases=1 kv=0.24 kw=678.40 pf=0.98
New Load.ev_XFMR-000476 bus1=bus_XFMR-000476_sec phases=1 kv=0.24 kw=335.30 pf=0.98
New Load.ev_XFMR-000477 bus1=bus_XFMR-000477_sec phases=1 kv=0.24 kw=292.60 pf=0.98
New Load.ev_XFMR-000480 bus1=bus_XFMR-000480_sec phases=1 kv=0.24 kw=561.20 pf=0.98
New Load.ev_XFMR-000481 bus1=bus_XFMR-000481_sec phases=1 kv=0.24 kw=86.80 pf=0.98
New Load.ev_XFMR-000484 bus1=bus_XFMR-000484_sec phases=1 kv=0.24 kw=1200.00 pf=0.98
New Load.ev_XFMR-000485 bus1=bus_XFMR-000485_sec phases=1 kv=0.24 kw=499.20 pf=0.98
New Load.ev_XFMR-000488 bus1=bus_XFMR-000488_sec phases=1 kv=0.24 kw=994.00 pf=0.98
